&NAMOPT CIDIEL=, 
       CITEFF=, 
       CISMR='Fresnel', 
       CIRGHR='Wigneron',
       CIVEG=,
       CIATM='Pellarin',       
       CITVEG=,
       CIDVEG='HTessel',
       CITDIEL=, 
       /
&NAMRAD FGHZ=1.4, 
        THETA=40,
       /
&NAMLEV NLAY_SOIL_MW=,
        NLAY_SOIL_LS=,
        NOBS_ATM=,
       /
&NAMDEF LOFFCMEM=.False.,
        LOFIELDEXP=.True.,
        LGPRINT=,
        JPHISTLEV=1,
        CFINOUT='ascii',
        LOMASK_OCEAN=.False.,
        LOMASK_AUTO=.True.,
/
